                        PASSENGER MANIFEST
                      ICAO ANNEX 9 APPENDIX 2
                      VIETNAM AIRLINES
                                 VN  6005     28AUG20

FROM  HANOI-VIETNAM                               .TO SEE BELOW

SURNAME AND FIRSTNAME


HO CHI MINH CITY-VIETNAM

 23D  AN NHU GIANG MR             4A  BUI DIEU MINH
  1C  BUI MANH CUONG MR           6D  BUI MINH TUAN MR
 18B  BUI THI MINH               30A  BUI VAN DUONG MR
 31A  DANG THI DIEM OANH          5A  DANG THI HONG NHUNG MS
 24C  DANG THI PHUONG THAO       31F  DANG TRAN HOANG LINH
 14E  DANG VAN SUU MR            10D  DAO BA DUC MR
 24B  DAO DUY MAI MR              7B  DAO NGOC BICH            ¥
 27A  DAO THI MAI                10E  DAO THI THANH XUAN MRS   ¥
  3B  DAO THU HUONG MRS          15A  DINH PHUONG ANH MRS
 16E  DINH TRONG HUY             26A  DO DINH VIET MR
  3D  DO HOANG HIEP              12A  DO MANH TAI MR
 12E  DO THI DIEM                 9A  DO TRUNG VIET MR
  3C  DO VAN THANG               19F  DOAN VAN TUNG
 14A  DUONG QUANG HUY MR         18A  DUONG VO HOAI PHUONG
 17D  HA VAN NGUYEN              31B  HO BAO CHAU
 24E  HO THANH TUYEN MR           9B  HOANG NGOC OANH
 10B  HOANG THI CHUC MRS         28A  HOANG THI HOA
 26C  HOANG THI NA               11D  HOANG THI THU HOA
 30B  HOANG VAN KY MR            28F  HUYNH VAN MANH
 15D  LAI CONG HUNG MR            4D  LAI THI BICH NGA MS
 21D  LE CONG THANH MR           19E  LE DUC CUONG
 15B  LE DUC LONG MR             16A  LE DUC THANH MR
 10A  LE KHAC KIEN               29B  LE NGUYEN QUANG MINH
 29A  LE PHUONG THAO             27C  LE TAN LOC MSTR
 22C  LE THAI KHANH LINH MISS    27B  LE THANH TUAN
 27D  LE THI NGOC BICH MISS       8C  LE THI NGUYET            ¥
 14B  LE TU KHANH MR             20C  LE TU THAI DUONG MSTR    ¥
 20B  LE TU THANH                26D  LE VAN THINH
 22B  LE VIET HIEN MR             6E  LY MAI HAN MRS
 19C  MAC TIEU TRAN MRS          14D  MIROSHNICHENKO DARIA
 12F  NEDDER SORAYA               5C  NGHIEM PHI HUNG MR
 19D  NGO DUC HOAN               26F  NGO THI PHAM
 25D  NGO THI THI                26E  NGO THI XUYEN
 25E  NGO THU HUONG MS           28B  NGO THUY LINH
 17C  NGUYEN ANH TUAN MR         21B  NGUYEN BA DUC
 30C  NGUYEN CHI THANH MR        12C  NGUYEN DAI NGHIA MR
 15C  NGUYEN DINH THUYEN         23F  NGUYEN DUC TOAN MR
 29E  NGUYEN HA LY                2B  NGUYEN HA VY MISS
 28D  NGUYEN HOANG HAI           21E  NGUYEN HOANG THAI DUONG MR
 10C  NGUYEN HOANG TU MR         25C  NGUYEN HUONG THAO
 12D  NGUYEN HUU VY              15F  NGUYEN KHANH THANH
  9D  NGUYEN LE VAN CHI          29F  NGUYEN LINH NHI
 21C  NGUYEN MINH DAT            16D  NGUYEN NHU LIEM
  2A  NGUYEN QUANG CHINH MR      18E  NGUYEN QUANG HUNG
 18F  NGUYEN QUANG HUNG          25B  NGUYEN QUYNH HUONG       ¥
 19B  NGUYEN SY ANH TUAN MR      16B  NGUYEN THANH HUYEN MRS   ¥
  5D  NGUYEN THANH PHUONG MR     28C  NGUYEN THANH TUNG
 30D  NGUYEN THI ANH TUYET       11A  NGUYEN THI BICH THUY
 31C  NGUYEN THI DU NGAN         24D  NGUYEN THI HOAI
 11C  NGUYEN THI HUONG MRS       15E  NGUYEN THI HUYEN MRS
 32E  NGUYEN THI LAN CHI MRS      9F  NGUYEN THI LEN
 25F  NGUYEN THI LICH MRS        10F  NGUYEN THI NGOC LAN MRS
 21F  NGUYEN THI NGOC OANH       31D  NGUYEN THI NGOC YEN
 26B  NGUYEN THI NHI MRS         21A  NGUYEN THI PHUONG
  8E  NGUYEN THI THU HANG        29C  NGUYEN THI THU THUY
 25A  NGUYEN THI THUY            32F  NGUYEN THI TRA MY MRS
 20F  NGUYEN THI YEN MRS         11B  NGUYEN THU MAI
  2C  NGUYEN TRAN THIEN LOC MSTR  9E  NGUYEN TRONG KIEN
 17E  NGUYEN TUAN LONG           14F  NGUYEN VAN BON MR
 23C  NGUYEN VAN HAO AN           9C  NGUYEN VAN HAO MR
  3E  NGUYEN VAN HUNG            30E  NGUYEN VAN HUNG
 17B  NGUYEN VAN LIEM MR         23A  NGUYEN VAN NGOC
 24A  NGUYEN VAN PHUONG MR       19A  NGUYEN VAN SANG
 23B  NGUYEN VAN THE HOC          7C  NGUYEN XUAN TRUNG        ¥
 18C  PHAM DINH TRUONG           12B  PHAM HOANG ANH MR        ¥
  4F  PHAM MINH NGOC              6A  PHAM NGUYEN THIEN VAN
  6B  PHAM NGUYEN THIEN VU        8A  PHAM QUANG DUY
  4B  PHAM THANH DONG MR          2D  PHAM THI HIEN MS
 16F  PHAN LE ANH                27E  PHAN MINH THONG
  6C  PHAN THI HIEN               8D  PHAN THI KIEU DIEM MS
  7D  PHUNG DAI LIEN MR           7E  PHUNG HONG PHUC MSTR
  5F  PHUNG MAI LINH MS          32A  RIVE DECAILLOT BERTRAND
 17A  THI THUY NGUYEN MS          3A  TO THU TRANG MRS
  2F  TONG HUE LINH MRS           5B  TONG THI TY MRS
 22D  TRAN AN KHANH MRS          22F  TRAN CHUC AN MRS
  8F  TRAN DANG MAI              23E  TRAN DUC LONG MR
 22E  TRAN NGOC LONG MR           7F  TRAN QUOC KHANH
 17F  TRAN THE VUONG             20E  TRAN THI HA
  1F  TRAN THI HA MRS            11F  TRAN THI KIM NHUNG
 20D  TRAN THI KIM YEN MRS       20A  TRAN THI LE HUONG
 11E  TRAN THI MINH ANH MS       16C  TRAN THI TAM
 24F  TRAN THI TRINH MS          29D  TRAN THU UYEN
 14C  TRAN VIET ANH MR            4C  TRINH QUANG TRUNG        ¥
  8B  VIET NGOC THEM              2E  VO THI CHIEN MS          ¥
 30F  VU CONG TY MR              28E  VU LAM ANH
 27F  VU PHU HUNG MR             22A  VU THI NGOC ANH MS
 18D  VU XUAN TUYEN

****************************************************************